12
xyz generated by write_xyz [md.py]
Au -2.716690 -4.698586 -0.000447
Au -0.013992 -4.753543 -0.000637
Au 2.697149 -4.709733 0.000081
Au -4.093724 -2.281208 -0.000786
Au -1.369014 -2.310624 -0.001902
Au 1.346663 -2.323446 -0.000684
Au 4.085019 -2.302441 -0.000035
Au -2.795103 0.093942 -0.000666
Au -0.013753 0.048972 -0.000601
Au 2.779274 0.064019 -0.000030
Au -1.394223 2.415706 0.000057
Au 1.395832 2.391493 0.000179
