500
UnitCell: 20.000000 20.000000 20.000000 90.000000 90.000000 90.000000
H      10.005004887176923     10.260709480737599      9.692011925568492
H      10.803450917240475      9.674222612054251      9.591363664692176
H       9.916382928024349      9.727528948260369      9.982776970265828
H       8.281887967669611      7.779644493534375      9.380836704677838
H       8.297074869251384     12.163003902384466     13.351197623440758
H       9.913703444059013     10.483638987727057     10.538030479764192
H       9.512036443538991      9.782284744900283     10.611324939304271
H       9.651233006659684      9.045392102659024     10.043260881075668
H      10.292743510155994      9.892974714999180     10.027459871537374
H       8.084044766278431     11.393940561033535      9.606846533868575
H      12.185265306521291      9.268393554297878      9.564463532423424
H       7.005791113345254      3.911526574959485     11.563628967823835
H       6.841837375028909      9.327292723731558      9.132506961511465
H      12.746083252906695      8.086831509789828      8.676435593189289
H       9.794399765402844     10.181828374249735     13.442523352757005
H       9.785363580138064      9.992531307332483     10.009091328555527
H       9.998581311328957      9.087711361120386     10.176964059438294
H       8.588815830154287     15.410823267779598     10.294011386097516
H       9.760470351120437      9.632510573661344      9.388217544977699
H       9.846484267318068      9.982884657080207      9.785427500677727
H      11.909735395292216      9.175092629299417      9.810461126013177
H      11.527644310520333     10.781825994066672     13.193272843480218
H       7.198916859058294      9.961791757414947      9.306172450188663
H       6.582365167429858     11.569142493265334     11.300685107470501
H       8.592073979581569     10.987652299522267      9.639159402655174
H       8.903467721735396     10.692382551026379     11.444128297527595
H      10.210911926854985     12.014689016035224      8.851608735527670
H      15.818252824991475     11.711343495070789     11.270399568630911
H       9.757005812524525      9.527321000139983     10.590964793748038
H      11.895474992801649     11.885340551748541      9.446528274910872
H       8.795061391314102     15.251871314396574      8.292846318699690
H      14.832013121089220     11.300902568787002     11.485164155367617
H       9.311363627179810     10.557955820443233      9.817168119333671
H      10.512089158947655      8.774673733461638      8.976217016728111
H       9.047182390082908      9.240725582620639     14.302426738485412
H      10.091272472520405     11.073521976459018      9.177014817192148
H      11.035581279182798     10.837539944308528     11.773700235773507
H      11.658933737017705      5.691966969520687     10.413158812283694
H       8.574758922674757      7.400500769871522      6.717082958021878
H       6.061171524961581      8.840314015851380     10.025771378881485
H      11.289510279176897      9.309071964823239     10.526232994668868
H      11.713758062790806      7.809591262903447     10.730266620964947
H       6.870548673390424      7.800373673003576     11.213407622724807
H      10.510035366646582     11.020489246586571      9.056928086462493
H       7.586181140103237      7.894594454507457     12.070087029912507
H      10.565189583718205      9.745460391866937     11.943596382851627
H       9.592109441050175      8.751175553349755     10.275412191562021
H       9.646333601803052     10.526248400259053     10.150597712878724
H      11.668038846846484     10.840257188171035      6.130209726897875
H      10.787465713815342     10.341923958466296      9.930222637827722
H      10.248896411492387     10.385146200315779      9.707589981603380
H       8.645080647089159     13.296873169158749      8.549422608294774
H      10.579584524781467      8.805260448618300      9.716657588897370
H       9.906000123889129     10.051921465829325     10.009511267640798
H      10.506098934987213      9.937605216048899     10.041910718116883
H      11.010988603997186     12.431507228782861      9.655749032255626
H       7.933997707185672     11.413479790864162     12.618671695850834
H      12.715991576155579     10.986241191155230     10.131526669985575
H      10.777771659659178     10.627130897520853     10.335547875548428
H       9.351518790121258      9.522775726900145      9.721203186461338
H      10.129392079480301      9.915349644105772     10.297721430743959
H       9.024774412878513      9.631198698753435      7.778582162093302
H      10.136780952307991      9.971131995622992     10.074837786927885
H      10.127096589022303     10.375603000481153      9.970526307082757
H       9.406965158296467     10.161251817592138     11.094788080633828
H      12.652057804507859     13.063736440027641      8.785876077242140
H       9.517753499556601      9.997596204717416      9.747041677500215
H       8.559390115883447     12.698503989333489     11.041089281351628
H       9.228221598138223      7.214477190877284     11.461801566525928
H       9.079202964330772     10.801361332661532      8.190224024576928
H       5.544960793984217      9.724573462196870     12.680654066291202
H      13.818577723460791     13.992585681747094      8.354653949694214
H       9.999477008640740      9.995227375675409     10.003208226404348
H       9.534175908034731     11.738740887397100      9.002554332829147
H       9.297924741686579      6.216989258230685     14.846858564284311
H      12.666308653231884     10.120258616194477     11.047475225965680
H      10.024412401004986     10.014118676758931     10.078246022723048
H       9.409071135528810     12.733777575466164     11.481408419738399
H       7.539161647657275      9.432127263732045     12.721190115172398
H       9.907071789997115     10.944872055184197     10.088870050913307
H      10.584283460037453      8.862186828234416     10.170674842330984
H       6.145146611910237     14.395510314574382     10.630360811672126
H       8.418554338641346      7.513472762061067     11.953768522793457
H      13.095030309018561     11.630277951250465      9.324958998339101
H       9.369542370981996     12.319617081287376      8.487403346555016
H       7.191171165215312      8.561059455671954     11.634533634612712
H      15.117390062872111      9.397162558559987     11.955470208077562
H      10.542455842680122     10.808190925044457     11.077091825044100
H      10.305622453783933      9.120954626534552      9.269981004528914
H       9.812695888403349     10.822351405634954     10.992777069840603
H      10.277880768711430      9.411194921001300     13.191292628333212
H       9.756645309734770     10.625417892718698     10.516961402539204
H      10.333049455284149      8.052661242344211     11.273774733685885
H      10.140973411598971     10.574909571004213     10.421609135046893
H       6.014205636488935     12.782808539582025      9.958922426614629
H      10.919920712123716      9.301036984437809     10.051175309342366
H       9.531061389283044     10.554339573199025     10.911793755997760
H       8.366343531622913     10.931870411771405     10.983389666098116
H       7.591616840881430      7.261365055832870     16.899886129142633
H      10.345038997057705     10.313853491680145     10.345317008773742
H      10.006750028402958      8.460845080169452      9.217669810619043
H       8.207015173147067      8.399512261614483      9.009678762243002
H       9.851834856581204      7.121432369717405      8.981543396622788
H      10.278081170246102      9.552470655774014     10.247812243585205
H       9.461721228620672      9.476894596175443      9.651372734585193
H      10.207797863857692     10.419660431323415      9.255345154741873
H      10.094989274284654     11.661186486313888     11.956792747934875
H      10.821772304976543      6.506285595789937     14.054150244759921
H      13.923076376322612      7.730925630393193     11.874847940059091
H       9.598393200319578      9.966081667563387      9.704770201094313
H      11.095521607735439      8.635624596926009     14.795170690160599
H       9.761260303613627      9.897769486012667     10.633336724796425
H       9.092081600253305     13.269335669421929      9.111114050506126
H      10.668822802473592      9.525088689612994      5.889497969899473
H      10.186858861621866     12.740181922307766     10.633318357185617
H       9.533878986734791     10.437141383389326      9.687447656871452
H       9.457347218187106      9.805546831581664      9.638958266528844
H      10.658814491748954      8.142597385657425     13.191374086553614
H      10.065103590867901      9.868291665892865     10.353079012156805
H      11.516529678213498     11.891392428509640     11.209381345953247
H      10.900664392483655      7.100083606220227      6.912717514237453
H       9.000723104379890     11.706201745124115     10.069903689905818
H      10.063859366335869      9.449105885583023     10.725900078825539
H       9.342513465936362      9.266414146982109      9.712315357559454
H       9.861895311242424      8.474165842330965      8.586495080086451
H      11.528034148351960      8.460717097617348     12.757019705511354
H       9.754283216533031     10.151097368161551      9.893366777079049
H       7.685849275811510      7.492323222185245      8.218318716644310
H      12.463008627363598     10.869636597165726     10.198024748202386
H      10.525934845929813     12.570785274117512     11.320959103930894
H       9.635487167409947      8.771035690369944     10.450200645940448
H       8.140687687311294      7.079702987814576      3.324260480201379
H      14.094758127068907      7.152926107689829     14.911937105921547
H      11.887399031925657     12.078077346592000      9.288475037436845
H       9.659240531026954     10.123420294997667     10.362790946562869
H      11.823734086123057     11.381148601128874     11.354617697253852
H       9.469279634755237      9.426089105592894     10.269982937674975
H      10.370265598312427      9.797882375176901     10.521280793737233
H       9.040060741654669     10.392566313066272     13.147538122538986
H       9.238144353497310     11.134509416549712      9.697000474084518
H      10.453973221063427     13.619126728554832      9.980345544398713
H      10.029452100862033     11.316842316240150     11.567795693389703
H       7.255371782437178      5.238913810451722      6.802665664850320
H       9.362977541069661     10.077324736485627     10.927273231577159
H       9.562149396654613     11.806913935275865      8.289485248909106
H       9.162597804965555     10.526949999885982     13.612657174109879
H      10.170398494705582     14.616816849263826      9.911110006703435
H       9.861535795513078      6.925603699307025     11.304312234011746
H       8.340904203245172     11.152722301825957      9.788030762394220
H       4.226330508858488      7.064342828454235      3.826789935065927
H      10.110133741879828      9.912982932867793     10.839451589697930
H      10.722426803540609     12.431940693862774     11.151485506176854
H       5.983760687638461     13.978962568862018      5.872327694518776
H      11.460064076056439     12.824435023453585      9.424500012476395
H      10.576997011997609     12.179133665200400     13.735023891090536
H       6.479938941142753     12.329629874471504      7.412502577703052
H      12.849957505860583      6.898837383978204      9.915808537001382
H      11.751090354476590     10.945148050680571      8.471973605304361
H       9.629107306585885      9.499299120076303      9.836289859656169
H      10.950753161751681     10.128603041991580      9.690098179170429
H       7.990032776148959      7.947626458855714     10.758313063888401
H      15.172398114847429     12.021971166632476     10.449116842873108
H      10.953870668289142      8.163188835228839      8.468631032059477
H       9.921203172577432     10.089732775045436     10.498533996470481
H      10.115008382014802      9.795304748600511      9.586864808828363
H       5.921050862164368     11.355856480488562     11.340795814652008
H      13.659705800084541      8.440514475291303      6.270269201513001
H      10.048366537722353     10.607481058612622      7.306173605816248
H       7.778935681883517     11.004591121782752     12.000903397187818
H       9.720784614215150      8.935985962772726     10.695282802428723
H      10.541933288334127     10.643746049573094     10.330471670016530
H       3.858907148162061      9.562127366039528     13.330952737811433
H       9.134437482758271     10.023265724119556      9.970613090458212
H      13.753127478461106      9.325732511386027      5.124829974474158
H       9.412545703106638      9.875858446620699     10.001902298472499
H       8.857257520958521     15.304919896540680      8.575922440733700
H      10.899286120411356     10.717299330905364     10.370265762088762
H      10.822400760737819     10.943018822128836      9.392990166986957
H       9.561778534945971      7.910473644393210      7.406732771687450
H      10.961753424279706      9.903229475852969      3.502672144131470
H       6.913845270377793      8.879193299121178      7.572589047091162
H       8.946365902459860     10.581720569877486     10.134212691109280
H      13.272681862562234      6.597187405670734      7.199756707471254
H       9.774377353154110     10.469783940117310     10.988484386413834
H      11.835251732878504      9.264142341749317     14.133192624311924
H      10.178579671803353      9.258772271700439      9.947610060277453
H      12.320551593631258     11.387310638562550     10.617097785387916
H      10.315640348522972      9.994081747002934      9.496945837387369
H      10.493976559640137      9.063939839299778     10.001072485887047
H      10.105275440966894      9.649999799928842      8.207670529564165
H       3.150849118541248      7.886055728166768     14.533829476005993
H      10.090247321014163     10.203455058760287     10.524817484030821
H      15.158169029426482      8.262171830384098     12.813317520945469
H       9.927442106173762      9.648057983706130      9.404331664719253
H       7.356066081250604      9.185609170415441     12.878479283087941
H      10.651918365798924      9.664924289926502     10.308079485159414
H       9.918432559526085     11.154564393484726     13.145367722344345
H       4.678365341650348      6.452673784210471     12.021385804481769
H       9.373563432549057      9.118297356560918      8.287051984803032
H      14.769384288026195      9.971897112333567      4.876311510168317
H      14.816985637116154      8.797329565582393      9.418349581992894
H       9.607439897465701     10.163115690678111      8.283566348144207
H       9.980601654192856     10.126687482372818     10.812748310306683
H      11.090767188229622     10.897403482445650     10.356073779761740
H      10.194748485864636     11.194983917043833      9.853730222836308
H      10.270979503213688      9.777381268022264      8.864531575206270
H       9.018650603644060      9.987857099900879      6.449382587896343
H      12.574867516019133      9.810331965002749     14.713713513710225
H      10.971216754281818     10.122313607254956     10.294897604183321
H      16.582088145286946     17.313773116806296     15.680503926593738
H      10.137772945399172     12.879267109543166     11.743927034650921
H      10.055181482151021      9.867190765491380      9.907840268398871
H      10.003974217355736     10.016285023086084      9.980530138537535
H       9.166930506602890      9.933643689833962      9.871824735298059
H       9.898695676194899      9.220685800950774     10.427622904276701
H       9.906206285167901     10.863568834597963     10.275171365362175
H      10.330441452162537     10.309507769756419     10.045205419161318
H       9.554237273153781     12.852770244726257     11.897644332128449
H      10.455140533704570     10.280349885728102      9.817049075007084
H       9.733743252094177     10.768045140367919      7.944348758409105
H      10.902057081429600      9.913230051916647      7.945868894838618
H       4.827769280052959     13.358577466012024      9.633597078645092
H       9.794268570428224      9.977056008273559     10.044334724973558
H      10.606402500786153     11.661327431975401     10.544545021741291
H      12.417847028780562     10.761806500110987      9.998837267424449
H      10.829928160161469     12.564748537033815     10.576192306920593
H       8.427374893980645     11.301388038950559     10.027256382756601
H      10.961152208840211      8.668450353533062      8.188610173697294
H      10.103506791229258      7.353073694034912     10.505217194469122
H      10.965653862769003     12.063037721247069      7.079888112953574
H       7.618051774214424     12.311940659729366     12.745754640500103
H      12.122170681633417      8.774375077356062      9.568271179813809
H       9.716953244164609      6.190862937053655      9.476849569004836
H       8.963488211929304      6.220375876870031     10.784814732699642
H      10.977545374946756      7.681309809356882      9.692057898426217
H       9.698838462142968     10.666687730943829     11.681360386487823
H       8.495720676104181      7.775074925129074     11.781567623391076
H       7.629978798481187     11.920185447022801      7.303532257142157
H      10.097788027215792      8.997954218464306     11.012075812303818
H      10.206426703252024     10.548577578960092     11.924669225366761
H       6.714130277795892      6.992035346046514     14.758926988017862
H      10.436772774263519      9.755558528808026      9.486886614892253
H      14.532502443909825     10.790154247811849      9.207867658987482
H       7.652783123568654      7.163003081673736     10.232953420772350
H       8.118111834324488     16.736777345927010      9.727368521085543
H       7.312417639798150      5.987792677679044      8.347802052120340
H       9.629340396580826     11.839205475293879     12.451271528062122
H       9.990447792445245      9.979861604340003     10.031214891031704
H       9.839677960118395     13.806490995816734      9.501144368956595
H      10.348438024313495     10.067975049226439      9.507033130550790
H       9.831492792249694      9.901765838731055      9.785517261851973
H       9.868209646863017      9.386906750599863      9.505917054856015
H      11.306571542206825     10.509401264828270     10.334567780574336
H      10.051780721108821      9.882559865100399     10.564646168627959
H       9.804111872219503      9.612006661160244      9.693855965947236
H       9.688222453768704     10.258420662918700     10.180163104809989
H      10.738345309811036      8.218471970347300     11.063176607256288
H      15.142311227791094      6.448403952881566     15.750575002596751
H       8.789525920775233     10.803428396098125      9.796954328133010
H      12.158053332143790      6.653173286014898      7.411579612415553
H       8.821171604854493     10.018020251424291     12.367167438462189
H       9.810846986247789      9.546780852908462     10.316539304626529
H       9.528876320535723      9.458735113673088      9.272880361455128
H       8.017737357423375      9.758313585172331      9.389966808203798
H      11.122625779679380      9.685472042120910     11.682303984059788
H       9.949550969478809     10.055209010247660      9.276984087518708
H      10.414749601809053      9.505950299764292     13.858238408182617
H      14.668670318092357     10.443163150285436     10.200975036009478
H       7.678486096135462     12.451643445394160     12.191406584656686
H       9.892839954108844      9.791658799858705      9.701956863685725
H      10.128027535422641      9.898252519503378     10.110829608531322
H      12.741717930373889     10.005349759005069     12.207721861464162
H       8.203339733835703      8.151623389271350      7.631895012591341
H       9.965113343248584     10.266684832555640      9.961057967004653
H       4.597672196531254      7.666661914584209      8.551022383794818
H       2.322029136962222     12.320263498557727      9.334256438125754
H       7.179037156702208      9.260239944932311      8.179932115155985
H       9.416369708018715     10.835245775989939      9.914042479998450
H      11.203101403641824      9.609233960077185      9.796671541998617
H      10.803973325357948     10.915595264276746      8.472854175513303
H       9.729581130980812      9.881723662429124     10.119308311933370
H       9.680397594603738      9.273630298481089      8.269011626027961
H      10.106417480584097     10.025003250232572     10.105045401178206
H       9.970434803494133      9.913926730307416     10.224283856236378
H      10.632134941749756     13.085147956273417      9.943180449566203
H       6.666142650343549      7.664157207286894      8.530283031585521
H      12.258225971116520      7.449077521162452      6.832162580949468
H       9.288170289413562      8.510847202037894      9.214157973621056
H      11.320098497829356      9.109527215230377      7.690414270800035
H       9.666831496906218     11.531783391822847      8.234676670374068
H       9.899172353345008     10.310073497381158     10.221598529952109
H       9.868298337989675     11.005455800898355     10.662995919654014
H      10.289328851511728      9.993600755207970      9.378725221123206
H      10.551541659040605     11.369200782918711     11.415512884922739
H       9.671754110441299     11.096631660289290      9.119480785768262
H      11.035149753377734     10.522952855475154      9.204117748185483
H      10.140800167647599      9.707417715422347     10.298547588349173
H       7.675589057453404      6.318363128291177     11.552393657043693
H      11.171352863576240      9.593570451497728     10.713331294333809
H      11.318518281728204     13.185624551497483      9.347458944806530
H      10.469698833847993      9.767911343677772      9.710375249354678
H       9.110297587431356     11.698371674347477     14.080488638866607
H      11.427422186261468      9.691277843747439     10.308221724591629
H      10.893568420021431      9.633461782213937     10.726250260902797
H       6.265014467199995      7.816889665033417      6.955923301252591
H       9.700783681598088     15.460311851333074     10.548887746581549
H      13.852065752145686     10.747092489329699     11.252458879273044
H      10.046344755752031     14.465303795137068      9.328040450875985
H      10.701839338230828     11.762878962273060     10.180776013644390
H       9.905388003704061     10.122546666784665     10.245550612998926
H      10.544771875817418      5.824722506354118      9.657896604648098
H       7.379076474743826      7.342244324480752     13.306280201391900
H      10.918678772617197      9.757840637667849     10.044566782307006
H      10.635982968540940     10.022376942965359     10.337253702503498
H       9.595397555435293     10.129177740011288      9.569490691555529
H      10.464220220889404      9.261095886511059      9.881317645100523
H      11.642969200973599     11.417395089046181      7.665218772183417
H       9.478099255249283      9.384231728688153     10.628319891081089
H       8.106350401446750     10.000552148837075     11.123761247294439
H       7.601606894079048      6.142604442686631     13.152288342899837
H       9.407675732327677     16.651898085485001      7.902047707347133
H       6.040992792788574     10.612288279343337      9.677086666592594
H       9.335067292733680      5.917088342536688     11.560239511263530
H      10.145130646258282      8.036089972232890     10.606257301522009
H       9.230792635467919     10.030987818959268      9.145191294901018
H       9.934690720286840     10.190294358247831     10.231283786548468
H      12.533100305597367      3.474946186979233      9.915883539270407
H      13.136063439937553      9.383053017902331     11.354360059437482
H       9.514080216533928     11.751541219329290     12.124443063117411
H      11.423662783958761      8.948658216517575      7.114489661149134
H      12.805957521472436      5.792535501980303     15.270695568485284
H       9.538698243472316     13.151059902216803     11.592966650789194
H       7.617659067301417      9.084485516254496     12.909928185397975
H      10.917537613029072     10.486197801033851     10.309443831075807
H      16.175569452861055     11.159806051607355     13.358422037284765
H       9.992893610888952     12.181016624856619      9.253559375101741
H       6.632898675855479      5.694969120367563     14.373709843868859
H       8.229576183736054     17.944883390242222      8.713989745681728
H      10.178362959298672     10.145969095250868     10.120681621468346
H      11.802476307119880     10.859470019012306      7.479384894603029
H      10.033038594160436      7.053979430376934     11.231681785891608
H       7.474445615512247      8.508508506605420     10.315725290083066
H       6.138669153582320     10.715243124571092      6.735489722639188
H      10.256289727190373      9.532084080665124      9.433232503874583
H       8.819801421998349      7.994008208238029      8.707620964013694
H      10.180514350822497     10.347728610561166     11.953481485302415
H       9.992032490342417     10.012572516206586      9.969859493173031
H       9.828974750428957     11.171823155395341      9.561461889918483
H       9.944471794709743      9.872328756384128      9.543953305221361
H      11.196911479104401     10.810230287215443      9.958086249935363
H      10.076903460026207      9.972130320484544     10.139108761627179
H      10.466524593196626     10.438238881928340     10.242052412019168
H       9.022705729448576      9.326886593077170      6.103443061450928
H      10.635220043855975      8.928808419810689      8.739877604002221
H       9.046212700879304     10.822520269678165      9.063286909378851
H      11.705371050213806     10.785273810944076      8.161978789720564
H       9.162797628261723      9.457232884669052     10.865158468532229
H       9.559163529416304     10.499743329312421     10.204038704510229
H      10.374900118919070     12.863193041615624     10.328595104623275
H      11.481349587020484      9.191964388868417      9.180734753064154
H      10.137300811129954     10.172874072077263     10.266843852817845
H      10.037767339828230     11.536190036170002      8.477384326527471
H      10.725707096580894     12.986872268382561      4.979250582402591
H       8.942766282726117      5.202073514323604     14.162158113132810
H      10.529471186285301     10.891830359600901     10.917444697799189
H      11.083005873488716     10.161023920699195     10.547021881739573
H       9.836715973615592     10.483030644778832      9.014103009321570
H      10.147248447207728     10.084722422475490      9.846391163450372
H       9.631544535700126      7.017155713692139     11.646464475785709
H      13.578260278392454     14.875094318608102     13.525550845577717
H      10.198812358673598      4.238719650515752      9.604328032134415
H      10.330538510202267      9.616167354446977     10.248998536245191
H      11.091941204841932      7.540659353739811      8.607352826473148
H      10.329705800242733     12.675919781426067      9.065456584331239
H      10.022616797608059     10.447444612077948     10.238739432248657
H      13.526147943767885     13.386967781376658     12.620444557542218
H      18.220937204011776      7.180179042469426      4.766821569579157
H       9.366384435993686     10.163877678970186      9.189178047105372
H       9.784065523170913     10.293303401367918     11.203377774716191
H       9.882946412559752      9.943725260218869      9.901980565683084
H      15.605491485304462      8.413099840199697     12.933531565710439
H       8.641619972469108      8.194818815885171     11.085927074991071
H      13.631887690108023     11.204901195183755      9.706076295330146
H      10.662582159385543     10.293879960461513      9.981071910833332
H       9.931315544638561      8.730889552306412     10.429099306569210
H      11.002122564757851      9.899470079403939      9.995479781235833
H       9.263231807819547     13.110616002156462     12.974620794559325
H       5.241406688947229      9.962545365966976     15.133652388932589
H       6.377261908706311      4.924616075498429      7.016594365137266
H      10.112648942567882     10.321285217627958      9.067375202967828
H      10.039277196152581     10.236252077369624     10.032216739890517
H      11.818953896635593      9.084931829034192     10.266156062548063
H       6.476301999177442     10.812935376361660     10.150974109633998
H      11.842422837458068     10.348169825023971     11.583368628456666
H       9.927030015928318     11.904166619065988     10.621016889616822
H      10.476246508700163      8.110718711922425     11.161863040821563
H      10.018675021421124      9.784034026392989      9.967024756807204
H      11.890733005901144      9.573938914776631     11.943963458530744
H       7.796085385842329     13.281141132618377      7.178245850819181
H      11.232673618513717     10.597223637039511      6.604099483508918
H      13.379231112203431     11.989241702416749     10.077522711210303
H      10.131358269123190     10.101464984834321      9.579952666775235
H      15.626669924525375      9.532162304071864     11.332541905134017
H       7.788691329791508      9.808898628661803      4.789812106104094
H      12.572347295404112      5.548765910565752     12.233134202376792
H       9.569193986647743      8.977602173301062      9.077965309452306
H      10.062499763150297      9.949957555824831      9.616252886264858
H      10.223539728655997      9.986822672792151      8.229025711668577
H      10.262267687263748     12.639687876706869     10.692756244690425
H      10.627676636664420     10.282813904438786     10.295283556601465
H       8.472637347594743     14.021147730335464     11.065349641751151
H       9.888261352961178     10.500519097837113     11.914947284282535
H       9.953633916871151     10.033775525840509      9.950186959734165
H       8.702827357930994      6.088021030893390      9.598515887762384
H      10.417188033479993      7.559349134107192     11.662547280070806
H      10.363264286947221     11.157837929028807      9.564224131315601
H       9.523557847017941      9.701413638099293      9.955257152520986
H       9.777087066807342      9.908590109449856     10.031139895922523
H       5.617511484188484      8.932177911647887      9.865765821119171
H       7.458872729430746     10.784697170746327      9.822933907378028
H      14.288849220937161      1.253703448110860     13.086269961236891
H      12.854828650246882     15.951584511455753     10.549909632695343
H      10.429012679327396     10.282345957958942     10.106021437772448
H       9.897504116855124      6.680753884480675     16.162150583891002
H       4.705370791733729      9.996599291265035     11.521009493556173
H       9.489802748740777      9.457346825545409     10.046722744701089
H      11.055360923396968      9.646246926681634      8.906590045608432
H       9.717294879217601      9.491016138580834      9.725302328690750
H       6.994568937812701      8.988723041546200     13.506540162450660
H      10.472039103750797     10.127298459272565      9.354775860994447
H       9.907560019002693      9.654687319468071      9.779070230472827
H       6.525109356602380      9.731159036576017      9.050151797521195
H       9.948196029607578     10.017712613380501     10.156995071603626
H      10.954233395297413      9.774611036947102     12.120796501993246
H      10.015846075891199     10.650065432675280      9.872425892700560
H       9.763481795800796      8.660120944738265      9.544801914633993
H       5.445547660186270     13.347620833581331      4.584837576943917
H      12.304368613584913     10.510923160686600      9.218410052237239
H       7.858826368853547      9.565126410423906      9.833235253720238
H      10.480563586883278      6.356955097844075      6.628803546379348
H      10.526535347825352      8.783470587768438     13.030196289981788
H       8.497448469635756      3.253219104373147     13.223505007341318
H       6.386845008671882     10.215354747201568      8.645230005501643
H       7.285232153175041      6.927149793765420     10.056124077441249
H      12.997423674792497      7.127628662375415     11.490206891091361
H       9.267715499611953      7.299311695490116     10.545299014050622
H       9.398083975010852     10.122963463888285      9.991560424398875
H       9.546840456945645      6.151239137222338      8.912602282860083
H       9.793590615050164     10.289769189414985     10.034911854058155
H       9.191880428346485     10.269640785692250      8.500852254283561
H       9.185748151721810     10.532790953853299      9.632886447817915
H      10.817437356081189      7.510375536313458      9.907885748933586
H      10.833476789602997     10.400928193583805     10.757462562973160
H       9.983103902420035     10.243066312635614      9.943756291072461
H       9.307416883993914      8.262753543664598     10.677211830678315
H       9.909657070750983     10.446644639330044     10.747978401976187
H      10.708031674198585      9.913774898472118      7.723504399430466
H       8.930554794237443      9.382227434428517      6.673331408606944
H      10.492548015751952      7.541699966871185      6.756119353283186
H       7.436861775549133     11.602595035544036     11.716632967229735
H       3.329546816068030     10.171379181044696      9.085954878641635
H       8.943840113099322     10.378582009367813     10.436746745358656
H       6.898836229903068     11.396695644872594     11.050970172348013
H       7.150118248008717     10.539636633315364     12.652416022016016
H       6.217760444513525      9.009322249401714      8.645801297022826
H       8.956559593442989      7.613343990707008      9.784159537796512
H       9.918201806977409      9.918207420416140     10.601333789033463
H      11.647782934178633      8.568999973936627      9.067131100639898
H      12.770863380739328     13.640781721586039      8.627296311921118
H       7.552606609047653     11.338031156822202     14.107671862545224
H       8.309321785280805      9.544453101395764     10.342093139425979
H      10.151659696066716     10.151273117470701     10.174326347971340
H      10.042574493590060      5.275267534036259     13.438504429904178
H      10.880633090074522      9.791250886656963     10.361688830298034
H      10.228203823085094      6.022322113019815      7.132971847623658
H      10.793741454384666     11.091344669614493      9.414414823988384
H      13.083135401579625     10.399427471026376     11.099523788788268
H      12.713436875370721     14.891647665589915     11.886628048704917
H      10.457073169477621     10.017594722081061     11.001690735371630
H      14.648034737601780     15.952781997258819      8.708838067730522
H       9.774235822629169     13.130339192078758      9.602787512124946
H       8.444278802281374     11.460783487341905      6.225338531948842
H      10.520573295528768      7.855525638942296      7.835723158618238
H      12.852557151488725      6.229099594839685     12.641108880101138
H      13.480753896226378     10.269376438425789      3.366273379300338
H       7.585428837353990      5.906816958956187     12.150710609183260
H      13.185843537445443      7.000350862045861     10.084442238487568
H      11.902821215811645     12.620602031216457     10.744976386215816
H       9.950510747075842      9.975316227256094      9.849527222258391
H      10.322777429686832     10.709037000837743      9.310684955413567
H      10.415267957186717     10.455127246327569     10.315463883694186
H       9.326594211048251     12.347146027182394     10.601757984224015
H      10.844933061030847      9.876610126366757     11.301376018915787
H      11.006285334421738     11.685170508564431     15.833352949902142
H      12.862690066035025      6.426484749418470      5.503004742442245
H      10.742968953752790     10.572906706928517      9.427314911687589
H       8.053783199345698      6.158501349312747     10.177187775904487
H      10.987304256031290      9.910805632459377     10.347368853908916
H      12.166718977906893      9.271309437005330     12.480795619466633
H      10.363885535616710      9.712123822222679      9.951082987029391
