72
 generated by VMD
 H         8.464109       17.535896        0.000000
 H         3.666907       17.535896        0.000000
 H         1.186997       17.576553        0.000000
 H         8.586072       -0.433284        0.000000
 H         6.106162       -0.514592        0.000000
 H         3.707561       -0.351975        0.000000
 H         1.186997       -0.433284        0.000000
 H         6.065508       17.535896        0.000000
 C         1.185139        0.603523        0.000000
 C         0.260456        1.530518        0.000000
 C        -0.041673        2.799983        0.000000
 C         1.220926        3.493645        0.000000
 C         1.254092        4.904078        0.000000
 C         0.135832        5.753726        0.000000
 C         0.115709        6.999422        0.000000
 C         1.257275        7.829463        0.000000
 C         1.257129        9.230269        0.000000
 C         0.115420       10.062768        0.000000
 C         0.145773       11.308435        0.000000
 C         1.264010       12.160981        0.000000
 C         1.241382       13.570717        0.000000
 C        -0.041765       14.256044        0.000000
 C         0.274199       15.528223        0.000000
 C         1.208282       16.434420        0.000000
 C         3.686705        0.747756        0.000000
 C         2.449074        1.317547        0.000000
 C         2.451712        2.777309        0.000000
 C         3.688037        3.488965        0.000000
 C         3.696254        4.927478        0.000000
 C         2.474121        5.649211        0.000000
 C         2.475237        7.085435        0.000000
 C         3.699469        7.809269        0.000000
 C         3.700085        9.243198        0.000000
 C         2.476846        9.969193        0.000000
 C         2.477687       11.403991        0.000000
 C         3.700102       12.120501        0.000000
 C         3.692461       13.551483        0.000000
 C         2.466005       14.287849        0.000000
 C         2.491950       15.743008        0.000000
 C         3.683621       16.442728        0.000000
 C         6.115798        0.564088        0.000000
 C         4.943622        1.333074        0.000000
 C         4.916568        2.788139        0.000000
 C         6.148740        3.490354        0.000000
 C         6.145840        4.925631        0.000000
 C         4.919258        5.649410        0.000000
 C         4.919844        7.082067        0.000000
 C         6.145453        7.807452        0.000000
 C         6.147064        9.241999        0.000000
 C         4.922409        9.968166        0.000000
 C         4.924785       11.399336        0.000000
 C         6.149958       12.124269        0.000000
 C         6.150511       13.559780        0.000000
 C         4.911543       14.253555        0.000000
 C         4.903989       15.695114        0.000000
 C         6.083024       16.400515        0.000000
 C         8.567493        0.717908        0.000000
 C         7.376116        1.288807        0.000000
 C         7.359635        2.744146        0.000000
 C         8.477877        3.577463        0.000000
 C         8.493648        4.828074        0.000000
 C         7.364900        5.662696        0.000000
 C         7.363529        7.068331        0.000000
 C         8.497568        7.899309        0.000000
 C         8.497248        9.145996        0.000000
 C         7.366040        9.980726        0.000000
 C         7.369808       11.386863        0.000000
 C         8.494171       12.225354        0.000000
 C         8.486681       13.476846        0.000000
 C         7.365526       14.305986        0.000000
 C         7.367161       15.758936        0.000000
 C         8.478569       16.482037        0.000000
