80

C      11.743305472484170      7.828870314989446      0.355000000000000
C      11.551719379139648      9.038497302034090      3.904999999999999
C      11.551719379139648      9.038497302034090      2.484999999999999
C      10.995714880781451     10.129717571620009      1.774999999999999
C      10.995714880781451     10.129717571620009      0.355000000000000
C      10.129717571620009     10.995714880781451      3.904999999999999
C      10.129717571620009     10.995714880781451      2.485000000000000
C       9.038497302034090     11.551719379139648      1.775000000000000
C       9.038497302034090     11.551719379139648      0.355000000000000
C       7.828870314989446     11.743305472484170      3.904999999999998
C       7.828870314989446     11.743305472484170      2.484999999999999
C       6.619243327944803     11.551719379139648      1.774999999999999
C       6.619243327944803     11.551719379139648      0.355000000000000
C       5.528023058358884     10.995714880781451      3.905000000000000
C       5.528023058358884     10.995714880781451      2.484999999999999
C       4.662025749197442     10.129717571620009      1.774999999999999
C       4.662025749197442     10.129717571620009      0.355000000000000
C       4.106021250839245      9.038497302034090      3.905000000000000
C       4.106021250839245      9.038497302034090      2.484999999999999
C       3.914435157494723      7.828870314989447      1.774999999999999
C       3.914435157494723      7.828870314989447      0.355000000000000
C       4.106021250839244      6.619243327944804      3.904999999999998
C       4.106021250839244      6.619243327944804      2.484999999999999
C       4.662025749197441      5.528023058358884      1.774999999999999
C       4.662025749197441      5.528023058358884      0.355000000000000
C       5.528023058358883      4.662025749197442      3.905000000000000
C       5.528023058358883      4.662025749197442      2.484999999999999
C       6.619243327944803      4.106021250839245      1.774999999999999
C       6.619243327944803      4.106021250839245      0.355000000000000
C       7.828870314989445      3.914435157494723      3.905000000000000
C       7.828870314989445      3.914435157494723      2.484999999999999
C       9.038497302034088      4.106021250839244      1.774999999999999
C       9.038497302034088      4.106021250839244      0.355000000000000
C      10.129717571620008      4.662025749197441      3.905000000000000
C      10.129717571620008      4.662025749197441      2.484999999999999
C      10.995714880781451      5.528023058358883      1.774999999999999
C      10.995714880781451      5.528023058358883      0.355000000000000
C      11.551719379139648      6.619243327944802      3.905000000000000
C      11.551719379139648      6.619243327944802      2.484999999999999
C      11.743305472484170      7.828870314989445      1.774999999999999
C      11.743305472484170      7.828870314989446      4.614999999999999
C      11.551719379139648      9.038497302034090      8.164999999999999
C      11.551719379139648      9.038497302034090      6.744999999999999
C      10.995714880781451     10.129717571620009      6.034999999999999
C      10.995714880781451     10.129717571620009      4.614999999999999
C      10.129717571620009     10.995714880781451      8.164999999999999
C      10.129717571620009     10.995714880781451      6.745000000000000
C       9.038497302034090     11.551719379139648      6.034999999999999
C       9.038497302034090     11.551719379139648      4.614999999999999
C       7.828870314989446     11.743305472484170      8.164999999999999
C       7.828870314989446     11.743305472484170      6.744999999999998
C       6.619243327944803     11.551719379139648      6.034999999999999
C       6.619243327944803     11.551719379139648      4.614999999999999
C       5.528023058358884     10.995714880781451      8.164999999999999
C       5.528023058358884     10.995714880781451      6.744999999999998
C       4.662025749197442     10.129717571620009      6.034999999999999
C       4.662025749197442     10.129717571620009      4.614999999999999
C       4.106021250839245      9.038497302034090      8.164999999999999
C       4.106021250839245      9.038497302034090      6.744999999999998
C       3.914435157494723      7.828870314989447      6.034999999999999
C       3.914435157494723      7.828870314989447      4.614999999999999
C       4.106021250839244      6.619243327944804      8.164999999999997
C       4.106021250839244      6.619243327944804      6.744999999999998
C       4.662025749197441      5.528023058358884      6.034999999999999
C       4.662025749197441      5.528023058358884      4.614999999999999
C       5.528023058358883      4.662025749197442      8.164999999999999
C       5.528023058358883      4.662025749197442      6.744999999999998
C       6.619243327944803      4.106021250839245      6.034999999999999
C       6.619243327944803      4.106021250839245      4.614999999999999
C       7.828870314989445      3.914435157494723      8.164999999999999
C       7.828870314989445      3.914435157494723      6.744999999999998
C       9.038497302034088      4.106021250839244      6.034999999999999
C       9.038497302034088      4.106021250839244      4.614999999999999
C      10.129717571620008      4.662025749197441      8.164999999999999
C      10.129717571620008      4.662025749197441      6.744999999999998
C      10.995714880781451      5.528023058358883      6.034999999999999
C      10.995714880781451      5.528023058358883      4.614999999999999
C      11.551719379139648      6.619243327944802      8.164999999999999
C      11.551719379139648      6.619243327944802      6.744999999999998
C      11.743305472484170      7.828870314989445      6.034999999999999
