6

O      48.428460000000001     49.415835000000001     50.000000000000000
C      49.650329999999997     49.433475000000001     50.000000000000000
N      50.378540000000001     50.580195000000003     50.000000000000000
H      50.273560000000003     48.525075000000001     50.000000000000000
H      49.880850000000002     51.460915000000000     50.000000000000000
H      51.388260000000002     50.584505000000000     50.000000000000000
