8
 generated by VMD
 C        10.764297       11.312760       10.885818
 C        11.323381       12.257390       11.414861
 C        13.376177       13.494281       11.498870
 H        12.831168       14.465755       11.635600
 H        10.235636       10.473558       10.425465
 N        14.820456       13.533195       10.309025
 N        12.006821       13.138335       12.623597
 H        13.630589       13.042744       12.493553
